2_bus_simulations/gflie_test/sting_log.txt
2026-04-22 16:08:25
   ______   __ 
  / __/ /__/ /_  _____ _
 _\ \/ __/ _// \/ / _ `/
/___/__///  /_/\_/\_, /
       /         /___/  

Version: 0.1.0 (2025-11-12)
========================================

> Initializing system ...
 System initialization completed.
> Loading system components from CSV files from /Users/ruthkravis/Documents/STING/examples/small_signal_and_emt/2-bus-src-gfl_e ...
 - 'infinite_sources.csv' ... 
   Added 1 'infinite_sources' 
 - 'gfli_e.csv' ... 
   Added 1 'gfli_e' 
 - 'buses.csv' ... 
   Added 2 'buses' 
 - 'loads.csv' ... 
   Added 2 'loads' 
 - 'lines.csv' ... 
   Added 1 'lines' 
 - 'timepoints.csv' ... 
   Added 1 'timepoints' 
> Post system initialization completed in 0.00 seconds.
> Completed in: 0.00 seconds. 


>> Starting AC power flow...

Model settings: ModelSettings(generator_type_costs='linear', power_flow_formulation='polar', load_shedding=True, write_model_file=False)
Solver settings: SolverSettings(solver_name='ipopt', tee=True, solver_options=None)
> Initializing construction of the optimization model for capacity expansion ... 
 - Decision variables of active power and reactive power for generators
   Size: 4 variables
 - Constraints for generator active power dispatch limits
   Size: 2 constraints
 - Constraints for generator reactive power dispatch limits
   Size: 2 constraints
 - Expressions for dispatch of active power at any bus
   Size: 2 expressions
 - Expressions for dispatch of reactive power at any bus
   Size: 2 expressions
 - Expressions for generation cost per timepoint
   Size: 1 expressions
> Initializing construction of ac power flow variables, constraints, and costs ... 
 - Processing load data for power flow model
 - Decision variables of bus voltage magnitudes and angles
   Size: 4 variables
 - Decision variables of active load shedding
   Size: 2 variables
 - Decision variables of reactive load shedding
   Size: 2 variables
 - Power flow per bus expressions
 - Active power balance at each bus
   Size: 2 constraints
 - Reactive power balance at each bus
   Size: 2 constraints
 - Load shedding cost expressions
   Size: 1 expressions
 - Load shedding cost expressions
   Size: 1 expressions
> Completed in 0.03 seconds. 

> Completed in 0.00 seconds. 

> Completed in 0.03 seconds. 

> Solving ac power flow model...
Ipopt 3.14.19: 

******************************************************************************
This program contains Ipopt, a library for large-scale nonlinear optimization.
 Ipopt is released as open source code under the Eclipse Public License (EPL).
         For more information visit https://github.com/coin-or/Ipopt
******************************************************************************

This is Ipopt version 3.14.19, running with linear solver MUMPS 5.6.2.

Number of nonzeros in equality constraint Jacobian...:       22
Number of nonzeros in inequality constraint Jacobian.:        2
Number of nonzeros in Lagrangian Hessian.............:        6

Total number of variables............................:       11
                     variables with only lower bounds:        4
                variables with lower and upper bounds:        3
                     variables with only upper bounds:        0
Total number of equality constraints.................:        6
Total number of inequality constraints...............:        2
        inequality constraints with only lower bounds:        0
   inequality constraints with lower and upper bounds:        2
        inequality constraints with only upper bounds:        0

iter    objective    inf_pr   inf_du lg(mu)  ||d||  lg(rg) alpha_du alpha_pr  ls
   0  3.9999960e+01 1.20e+02 4.43e+01  -1.0 0.00e+00    -  0.00e+00 0.00e+00   0
   1  3.2737862e+01 1.20e+02 1.26e+02  -1.0 1.23e+02    -  2.68e-01 2.70e-03h  1
   2  3.2347182e+01 1.19e+02 1.29e+02  -1.0 1.29e+02    -  2.98e-03 2.84e-03h  1
   3  1.6412975e+01 8.16e+01 1.59e+03  -1.0 1.29e+02    -  7.94e-02 3.17e-01f  1
   4  1.9507125e+00 7.65e+01 1.65e+03  -1.0 9.07e+01    -  1.08e-03 6.22e-02f  1
   5  1.5311048e+01 4.57e+01 1.80e+03  -1.0 8.64e+01    -  6.40e-02 4.02e-01h  1
   6  1.4850226e+01 4.56e+01 1.79e+03  -1.0 5.61e+01    -  1.93e-01 2.83e-03h  1
   7  3.2966365e+00 2.71e+01 1.37e+03  -1.0 5.07e+01    -  7.56e-01 4.05e-01f  1
   8  3.3650854e+00 2.60e+01 1.99e+03  -1.0 5.01e+01    -  9.07e-01 4.24e-02h  1
   9  3.3710062e+00 2.60e+01 1.89e+04  -1.0 4.64e+01    -  1.25e-01 5.33e-04h  1
iter    objective    inf_pr   inf_du lg(mu)  ||d||  lg(rg) alpha_du alpha_pr  ls
  10  1.4280222e+02 2.56e+01 1.98e+03  -1.0 2.91e+01    -  1.20e-04 1.47e-02h  1
  11  1.8509952e+04 2.01e+00 3.12e+03  -1.0 2.83e+01    -  2.46e-02 1.00e+00h  1
  12  2.1536555e+04 5.63e-03 6.27e+00  -1.0 3.03e+00    -  1.00e+00 1.00e+00h  1
  13  2.1541849e+04 2.74e-07 2.54e-04  -1.7 1.59e-02    -  1.00e+00 1.00e+00h  1
  14  2.1540850e+04 6.81e-09 3.67e-06  -5.7 1.79e-03    -  1.00e+00 1.00e+00f  1
  15  2.1540850e+04 2.84e-14 8.50e-12  -8.6 3.09e-07    -  1.00e+00 1.00e+00h  1

Number of Iterations....: 15

                                   (scaled)                 (unscaled)
Objective...............:   2.1540850279177480e+03    2.1540850279177477e+04
Dual infeasibility......:   8.4968855376969712e-12    8.4968855376969712e-11
Constraint violation....:   1.5752397847189015e-14    2.8421709430404007e-14
Variable bound violation:   1.0499898950300235e-08    1.0499898950300235e-08
Complementarity.........:   2.5059958595510932e-09    2.5059958595510931e-08
Overall NLP error.......:   9.8114348023672384e-11    2.5059958595510931e-08


Number of objective function evaluations             = 16
Number of objective gradient evaluations             = 16
Number of equality constraint evaluations            = 16
Number of inequality constraint evaluations          = 16
Number of equality constraint Jacobian evaluations   = 16
Number of inequality constraint Jacobian evaluations = 16
Number of Lagrangian Hessian evaluations             = 15
Total seconds in IPOPT                               = 0.024

EXIT: Optimal Solution Found.

Could not load duals, i.e., shadow prices, from solver.
> Time spent by solver: 0.25 seconds.
> Solver finished with status: ok, termination condition: optimal.
> Objective value: 21540.85027917748. 

> Initializing export all results to CSV files ... 
- Directory: /Users/ruthkravis/Documents/STING/examples/small_signal_and_emt/2-bus-src-gfl_e/outputs/ac_power_flow
> Initializing export generator dispatch results to CSV files ... 
> Completed in 0.00 seconds. 

> Initializing export power flow results to CSV files ... 
> Completed in 0.02 seconds. 

> Completed in 0.04 seconds. 

> Add branches and shunts from dissecting lines:
  - Lines with no series compensation
... ok.

2026-04-22 16:08:51
   ______   __ 
  / __/ /__/ /_  _____ _
 _\ \/ __/ _// \/ / _ `/
/___/__///  /_/\_/\_, /
       /         /___/  

Version: 0.1.0 (2025-11-12)
========================================

> Initializing system ...
 System initialization completed.
> Loading system components from CSV files from /Users/ruthkravis/Documents/STING/examples/small_signal_and_emt/2-bus-src-gfl_e ...
 - 'infinite_sources.csv' ... 
   Added 1 'infinite_sources' 
 - 'gfli_e.csv' ... 
   Added 1 'gfli_e' 
 - 'buses.csv' ... 
   Added 2 'buses' 
 - 'loads.csv' ... 
   Added 2 'loads' 
 - 'lines.csv' ... 
   Added 1 'lines' 
 - 'timepoints.csv' ... 
   Added 1 'timepoints' 
> Post system initialization completed in 0.00 seconds.
> Completed in: 0.00 seconds. 


>> Starting AC power flow...

Model settings: ModelSettings(generator_type_costs='linear', power_flow_formulation='polar', load_shedding=True, write_model_file=False)
Solver settings: SolverSettings(solver_name='ipopt', tee=True, solver_options=None)
> Initializing construction of the optimization model for capacity expansion ... 
 - Decision variables of active power and reactive power for generators
   Size: 4 variables
 - Constraints for generator active power dispatch limits
   Size: 2 constraints
 - Constraints for generator reactive power dispatch limits
   Size: 2 constraints
 - Expressions for dispatch of active power at any bus
   Size: 2 expressions
 - Expressions for dispatch of reactive power at any bus
   Size: 2 expressions
 - Expressions for generation cost per timepoint
   Size: 1 expressions
> Initializing construction of ac power flow variables, constraints, and costs ... 
 - Processing load data for power flow model
 - Decision variables of bus voltage magnitudes and angles
   Size: 4 variables
 - Decision variables of active load shedding
   Size: 2 variables
 - Decision variables of reactive load shedding
   Size: 2 variables
 - Power flow per bus expressions
 - Active power balance at each bus
   Size: 2 constraints
 - Reactive power balance at each bus
   Size: 2 constraints
 - Load shedding cost expressions
   Size: 1 expressions
 - Load shedding cost expressions
   Size: 1 expressions
> Completed in 0.00 seconds. 

> Completed in 0.00 seconds. 

> Completed in 0.01 seconds. 

> Solving ac power flow model...
Ipopt 3.14.19: 

******************************************************************************
This program contains Ipopt, a library for large-scale nonlinear optimization.
 Ipopt is released as open source code under the Eclipse Public License (EPL).
         For more information visit https://github.com/coin-or/Ipopt
******************************************************************************

This is Ipopt version 3.14.19, running with linear solver MUMPS 5.6.2.

Number of nonzeros in equality constraint Jacobian...:       22
Number of nonzeros in inequality constraint Jacobian.:        2
Number of nonzeros in Lagrangian Hessian.............:        6

Total number of variables............................:       11
                     variables with only lower bounds:        4
                variables with lower and upper bounds:        3
                     variables with only upper bounds:        0
Total number of equality constraints.................:        6
Total number of inequality constraints...............:        2
        inequality constraints with only lower bounds:        0
   inequality constraints with lower and upper bounds:        2
        inequality constraints with only upper bounds:        0

iter    objective    inf_pr   inf_du lg(mu)  ||d||  lg(rg) alpha_du alpha_pr  ls
   0  3.9999960e+01 1.20e+02 4.43e+01  -1.0 0.00e+00    -  0.00e+00 0.00e+00   0
   1  3.2737862e+01 1.20e+02 1.26e+02  -1.0 1.23e+02    -  2.68e-01 2.70e-03h  1
   2  3.2347182e+01 1.19e+02 1.29e+02  -1.0 1.29e+02    -  2.98e-03 2.84e-03h  1
   3  1.6412975e+01 8.16e+01 1.59e+03  -1.0 1.29e+02    -  7.94e-02 3.17e-01f  1
   4  1.9507125e+00 7.65e+01 1.65e+03  -1.0 9.07e+01    -  1.08e-03 6.22e-02f  1
   5  1.5311048e+01 4.57e+01 1.80e+03  -1.0 8.64e+01    -  6.40e-02 4.02e-01h  1
   6  1.4850226e+01 4.56e+01 1.79e+03  -1.0 5.61e+01    -  1.93e-01 2.83e-03h  1
   7  3.2966365e+00 2.71e+01 1.37e+03  -1.0 5.07e+01    -  7.56e-01 4.05e-01f  1
   8  3.3650854e+00 2.60e+01 1.99e+03  -1.0 5.01e+01    -  9.07e-01 4.24e-02h  1
   9  3.3710062e+00 2.60e+01 1.89e+04  -1.0 4.64e+01    -  1.25e-01 5.33e-04h  1
iter    objective    inf_pr   inf_du lg(mu)  ||d||  lg(rg) alpha_du alpha_pr  ls
  10  1.4280222e+02 2.56e+01 1.98e+03  -1.0 2.91e+01    -  1.20e-04 1.47e-02h  1
  11  1.8509952e+04 2.01e+00 3.12e+03  -1.0 2.83e+01    -  2.46e-02 1.00e+00h  1
  12  2.1536555e+04 5.63e-03 6.27e+00  -1.0 3.03e+00    -  1.00e+00 1.00e+00h  1
  13  2.1541849e+04 2.74e-07 2.54e-04  -1.7 1.59e-02    -  1.00e+00 1.00e+00h  1
  14  2.1540850e+04 6.81e-09 3.67e-06  -5.7 1.79e-03    -  1.00e+00 1.00e+00f  1
  15  2.1540850e+04 2.84e-14 8.50e-12  -8.6 3.09e-07    -  1.00e+00 1.00e+00h  1

Number of Iterations....: 15

                                   (scaled)                 (unscaled)
Objective...............:   2.1540850279177480e+03    2.1540850279177477e+04
Dual infeasibility......:   8.4968855376969712e-12    8.4968855376969712e-11
Constraint violation....:   1.5752397847189015e-14    2.8421709430404007e-14
Variable bound violation:   1.0499898950300235e-08    1.0499898950300235e-08
Complementarity.........:   2.5059958595510932e-09    2.5059958595510931e-08
Overall NLP error.......:   9.8114348023672384e-11    2.5059958595510931e-08


Number of objective function evaluations             = 16
Number of objective gradient evaluations             = 16
Number of equality constraint evaluations            = 16
Number of inequality constraint evaluations          = 16
Number of equality constraint Jacobian evaluations   = 16
Number of inequality constraint Jacobian evaluations = 16
Number of Lagrangian Hessian evaluations             = 15
Total seconds in IPOPT                               = 0.010

EXIT: Optimal Solution Found.

Could not load duals, i.e., shadow prices, from solver.
> Time spent by solver: 0.08 seconds.
> Solver finished with status: ok, termination condition: optimal.
> Objective value: 21540.85027917748. 

> Initializing export all results to CSV files ... 
- Directory: /Users/ruthkravis/Documents/STING/examples/small_signal_and_emt/2-bus-src-gfl_e/outputs/ac_power_flow
> Initializing export generator dispatch results to CSV files ... 
> Completed in 0.00 seconds. 

> Initializing export power flow results to CSV files ... 
> Completed in 0.04 seconds. 

> Completed in 0.05 seconds. 

> Add branches and shunts from dissecting lines:
  - Lines with no series compensation
... ok.

2026-04-22 16:09:40
   ______   __ 
  / __/ /__/ /_  _____ _
 _\ \/ __/ _// \/ / _ `/
/___/__///  /_/\_/\_, /
       /         /___/  

Version: 0.1.0 (2025-11-12)
========================================

> Initializing system ...
 System initialization completed.
> Loading system components from CSV files from /Users/ruthkravis/Documents/STING/examples/small_signal_and_emt/2-bus-src-gfl_e ...
 - 'infinite_sources.csv' ... 
   Added 1 'infinite_sources' 
 - 'gfli_e.csv' ... 
   Added 1 'gfli_e' 
 - 'buses.csv' ... 
   Added 2 'buses' 
 - 'loads.csv' ... 
   Added 2 'loads' 
 - 'lines.csv' ... 
   Added 1 'lines' 
 - 'timepoints.csv' ... 
   Added 1 'timepoints' 
> Post system initialization completed in 0.00 seconds.
> Completed in: 0.00 seconds. 


>> Starting AC power flow...

Model settings: ModelSettings(generator_type_costs='linear', power_flow_formulation='polar', load_shedding=True, write_model_file=False)
Solver settings: SolverSettings(solver_name='ipopt', tee=True, solver_options=None)
> Initializing construction of the optimization model for capacity expansion ... 
 - Decision variables of active power and reactive power for generators
   Size: 4 variables
 - Constraints for generator active power dispatch limits
   Size: 2 constraints
 - Constraints for generator reactive power dispatch limits
   Size: 2 constraints
 - Expressions for dispatch of active power at any bus
   Size: 2 expressions
 - Expressions for dispatch of reactive power at any bus
   Size: 2 expressions
 - Expressions for generation cost per timepoint
   Size: 1 expressions
> Initializing construction of ac power flow variables, constraints, and costs ... 
 - Processing load data for power flow model
 - Decision variables of bus voltage magnitudes and angles
   Size: 4 variables
 - Decision variables of active load shedding
   Size: 2 variables
 - Decision variables of reactive load shedding
   Size: 2 variables
 - Power flow per bus expressions
 - Active power balance at each bus
   Size: 2 constraints
 - Reactive power balance at each bus
   Size: 2 constraints
 - Load shedding cost expressions
   Size: 1 expressions
 - Load shedding cost expressions
   Size: 1 expressions
> Completed in 0.00 seconds. 

> Completed in 0.00 seconds. 

> Completed in 0.01 seconds. 

> Solving ac power flow model...
Ipopt 3.14.19: 

******************************************************************************
This program contains Ipopt, a library for large-scale nonlinear optimization.
 Ipopt is released as open source code under the Eclipse Public License (EPL).
         For more information visit https://github.com/coin-or/Ipopt
******************************************************************************

This is Ipopt version 3.14.19, running with linear solver MUMPS 5.6.2.

Number of nonzeros in equality constraint Jacobian...:       22
Number of nonzeros in inequality constraint Jacobian.:        2
Number of nonzeros in Lagrangian Hessian.............:        6

Total number of variables............................:       11
                     variables with only lower bounds:        4
                variables with lower and upper bounds:        3
                     variables with only upper bounds:        0
Total number of equality constraints.................:        6
Total number of inequality constraints...............:        2
        inequality constraints with only lower bounds:        0
   inequality constraints with lower and upper bounds:        2
        inequality constraints with only upper bounds:        0

iter    objective    inf_pr   inf_du lg(mu)  ||d||  lg(rg) alpha_du alpha_pr  ls
   0  3.9999960e+01 1.20e+02 4.43e+01  -1.0 0.00e+00    -  0.00e+00 0.00e+00   0
   1  3.2737862e+01 1.20e+02 1.26e+02  -1.0 1.23e+02    -  2.68e-01 2.70e-03h  1
   2  3.2347182e+01 1.19e+02 1.29e+02  -1.0 1.29e+02    -  2.98e-03 2.84e-03h  1
   3  1.6412975e+01 8.16e+01 1.59e+03  -1.0 1.29e+02    -  7.94e-02 3.17e-01f  1
   4  1.9507125e+00 7.65e+01 1.65e+03  -1.0 9.07e+01    -  1.08e-03 6.22e-02f  1
   5  1.5311048e+01 4.57e+01 1.80e+03  -1.0 8.64e+01    -  6.40e-02 4.02e-01h  1
   6  1.4850226e+01 4.56e+01 1.79e+03  -1.0 5.61e+01    -  1.93e-01 2.83e-03h  1
   7  3.2966365e+00 2.71e+01 1.37e+03  -1.0 5.07e+01    -  7.56e-01 4.05e-01f  1
   8  3.3650854e+00 2.60e+01 1.99e+03  -1.0 5.01e+01    -  9.07e-01 4.24e-02h  1
   9  3.3710062e+00 2.60e+01 1.89e+04  -1.0 4.64e+01    -  1.25e-01 5.33e-04h  1
iter    objective    inf_pr   inf_du lg(mu)  ||d||  lg(rg) alpha_du alpha_pr  ls
  10  1.4280222e+02 2.56e+01 1.98e+03  -1.0 2.91e+01    -  1.20e-04 1.47e-02h  1
  11  1.8509952e+04 2.01e+00 3.12e+03  -1.0 2.83e+01    -  2.46e-02 1.00e+00h  1
  12  2.1536555e+04 5.63e-03 6.27e+00  -1.0 3.03e+00    -  1.00e+00 1.00e+00h  1
  13  2.1541849e+04 2.74e-07 2.54e-04  -1.7 1.59e-02    -  1.00e+00 1.00e+00h  1
  14  2.1540850e+04 6.81e-09 3.67e-06  -5.7 1.79e-03    -  1.00e+00 1.00e+00f  1
  15  2.1540850e+04 2.84e-14 8.50e-12  -8.6 3.09e-07    -  1.00e+00 1.00e+00h  1

Number of Iterations....: 15

                                   (scaled)                 (unscaled)
Objective...............:   2.1540850279177480e+03    2.1540850279177477e+04
Dual infeasibility......:   8.4968855376969712e-12    8.4968855376969712e-11
Constraint violation....:   1.5752397847189015e-14    2.8421709430404007e-14
Variable bound violation:   1.0499898950300235e-08    1.0499898950300235e-08
Complementarity.........:   2.5059958595510932e-09    2.5059958595510931e-08
Overall NLP error.......:   9.8114348023672384e-11    2.5059958595510931e-08


Number of objective function evaluations             = 16
Number of objective gradient evaluations             = 16
Number of equality constraint evaluations            = 16
Number of inequality constraint evaluations          = 16
Number of equality constraint Jacobian evaluations   = 16
Number of inequality constraint Jacobian evaluations = 16
Number of Lagrangian Hessian evaluations             = 15
Total seconds in IPOPT                               = 0.010

EXIT: Optimal Solution Found.

Could not load duals, i.e., shadow prices, from solver.
> Time spent by solver: 0.07 seconds.
> Solver finished with status: ok, termination condition: optimal.
> Objective value: 21540.85027917748. 

> Initializing export all results to CSV files ... 
- Directory: /Users/ruthkravis/Documents/STING/examples/small_signal_and_emt/2-bus-src-gfl_e/outputs/ac_power_flow
> Initializing export generator dispatch results to CSV files ... 
> Completed in 0.00 seconds. 

> Initializing export power flow results to CSV files ... 
> Completed in 0.01 seconds. 

> Completed in 0.01 seconds. 

> Add branches and shunts from dissecting lines:
  - Lines with no series compensation
... ok.

2026-04-22 16:10:15
   ______   __ 
  / __/ /__/ /_  _____ _
 _\ \/ __/ _// \/ / _ `/
/___/__///  /_/\_/\_, /
       /         /___/  

Version: 0.1.0 (2025-11-12)
========================================

> Initializing system ...
 System initialization completed.
> Loading system components from CSV files from /Users/ruthkravis/Documents/STING/examples/small_signal_and_emt/2-bus-src-gfl_e ...
 - 'infinite_sources.csv' ... 
   Added 1 'infinite_sources' 
 - 'gfli_e.csv' ... 
   Added 1 'gfli_e' 
 - 'buses.csv' ... 
   Added 2 'buses' 
 - 'loads.csv' ... 
   Added 2 'loads' 
 - 'lines.csv' ... 
   Added 1 'lines' 
 - 'timepoints.csv' ... 
   Added 1 'timepoints' 
> Post system initialization completed in 0.00 seconds.
> Completed in: 0.00 seconds. 


>> Starting AC power flow...

Model settings: ModelSettings(generator_type_costs='linear', power_flow_formulation='polar', load_shedding=True, write_model_file=False)
Solver settings: SolverSettings(solver_name='ipopt', tee=True, solver_options=None)
> Initializing construction of the optimization model for capacity expansion ... 
 - Decision variables of active power and reactive power for generators
   Size: 4 variables
 - Constraints for generator active power dispatch limits
   Size: 2 constraints
 - Constraints for generator reactive power dispatch limits
   Size: 2 constraints
 - Expressions for dispatch of active power at any bus
   Size: 2 expressions
 - Expressions for dispatch of reactive power at any bus
   Size: 2 expressions
 - Expressions for generation cost per timepoint
   Size: 1 expressions
> Initializing construction of ac power flow variables, constraints, and costs ... 
 - Processing load data for power flow model
 - Decision variables of bus voltage magnitudes and angles
   Size: 4 variables
 - Decision variables of active load shedding
   Size: 2 variables
 - Decision variables of reactive load shedding
   Size: 2 variables
 - Power flow per bus expressions
 - Active power balance at each bus
   Size: 2 constraints
 - Reactive power balance at each bus
   Size: 2 constraints
 - Load shedding cost expressions
   Size: 1 expressions
 - Load shedding cost expressions
   Size: 1 expressions
> Completed in 0.03 seconds. 

> Completed in 0.00 seconds. 

> Completed in 0.03 seconds. 

> Solving ac power flow model...
Ipopt 3.14.19: 

******************************************************************************
This program contains Ipopt, a library for large-scale nonlinear optimization.
 Ipopt is released as open source code under the Eclipse Public License (EPL).
         For more information visit https://github.com/coin-or/Ipopt
******************************************************************************

This is Ipopt version 3.14.19, running with linear solver MUMPS 5.6.2.

Number of nonzeros in equality constraint Jacobian...:       22
Number of nonzeros in inequality constraint Jacobian.:        2
Number of nonzeros in Lagrangian Hessian.............:        6

Total number of variables............................:       11
                     variables with only lower bounds:        4
                variables with lower and upper bounds:        3
                     variables with only upper bounds:        0
Total number of equality constraints.................:        6
Total number of inequality constraints...............:        2
        inequality constraints with only lower bounds:        0
   inequality constraints with lower and upper bounds:        2
        inequality constraints with only upper bounds:        0

iter    objective    inf_pr   inf_du lg(mu)  ||d||  lg(rg) alpha_du alpha_pr  ls
   0  3.9999960e+01 1.20e+02 4.43e+01  -1.0 0.00e+00    -  0.00e+00 0.00e+00   0
   1  3.2737862e+01 1.20e+02 1.26e+02  -1.0 1.23e+02    -  2.68e-01 2.70e-03h  1
   2  3.2347182e+01 1.19e+02 1.29e+02  -1.0 1.29e+02    -  2.98e-03 2.84e-03h  1
   3  1.6412975e+01 8.16e+01 1.59e+03  -1.0 1.29e+02    -  7.94e-02 3.17e-01f  1
   4  1.9507125e+00 7.65e+01 1.65e+03  -1.0 9.07e+01    -  1.08e-03 6.22e-02f  1
   5  1.5311048e+01 4.57e+01 1.80e+03  -1.0 8.64e+01    -  6.40e-02 4.02e-01h  1
   6  1.4850226e+01 4.56e+01 1.79e+03  -1.0 5.61e+01    -  1.93e-01 2.83e-03h  1
   7  3.2966365e+00 2.71e+01 1.37e+03  -1.0 5.07e+01    -  7.56e-01 4.05e-01f  1
   8  3.3650854e+00 2.60e+01 1.99e+03  -1.0 5.01e+01    -  9.07e-01 4.24e-02h  1
   9  3.3710062e+00 2.60e+01 1.89e+04  -1.0 4.64e+01    -  1.25e-01 5.33e-04h  1
iter    objective    inf_pr   inf_du lg(mu)  ||d||  lg(rg) alpha_du alpha_pr  ls
  10  1.4280222e+02 2.56e+01 1.98e+03  -1.0 2.91e+01    -  1.20e-04 1.47e-02h  1
  11  1.8509952e+04 2.01e+00 3.12e+03  -1.0 2.83e+01    -  2.46e-02 1.00e+00h  1
  12  2.1536555e+04 5.63e-03 6.27e+00  -1.0 3.03e+00    -  1.00e+00 1.00e+00h  1
  13  2.1541849e+04 2.74e-07 2.54e-04  -1.7 1.59e-02    -  1.00e+00 1.00e+00h  1
  14  2.1540850e+04 6.81e-09 3.67e-06  -5.7 1.79e-03    -  1.00e+00 1.00e+00f  1
  15  2.1540850e+04 2.84e-14 8.50e-12  -8.6 3.09e-07    -  1.00e+00 1.00e+00h  1

Number of Iterations....: 15

                                   (scaled)                 (unscaled)
Objective...............:   2.1540850279177480e+03    2.1540850279177477e+04
Dual infeasibility......:   8.4968855376969712e-12    8.4968855376969712e-11
Constraint violation....:   1.5752397847189015e-14    2.8421709430404007e-14
Variable bound violation:   1.0499898950300235e-08    1.0499898950300235e-08
Complementarity.........:   2.5059958595510932e-09    2.5059958595510931e-08
Overall NLP error.......:   9.8114348023672384e-11    2.5059958595510931e-08


Number of objective function evaluations             = 16
Number of objective gradient evaluations             = 16
Number of equality constraint evaluations            = 16
Number of inequality constraint evaluations          = 16
Number of equality constraint Jacobian evaluations   = 16
Number of inequality constraint Jacobian evaluations = 16
Number of Lagrangian Hessian evaluations             = 15
Total seconds in IPOPT                               = 0.021

EXIT: Optimal Solution Found.

Could not load duals, i.e., shadow prices, from solver.
> Time spent by solver: 0.13 seconds.
> Solver finished with status: ok, termination condition: optimal.
> Objective value: 21540.85027917748. 

> Initializing export all results to CSV files ... 
- Directory: /Users/ruthkravis/Documents/STING/examples/small_signal_and_emt/2-bus-src-gfl_e/outputs/ac_power_flow
> Initializing export generator dispatch results to CSV files ... 
> Completed in 0.00 seconds. 

> Initializing export power flow results to CSV files ... 
> Completed in 0.02 seconds. 

> Completed in 0.03 seconds. 

> Add branches and shunts from dissecting lines:
  - Lines with no series compensation
... ok.

2026-04-22 16:11:28
   ______   __ 
  / __/ /__/ /_  _____ _
 _\ \/ __/ _// \/ / _ `/
/___/__///  /_/\_/\_, /
       /         /___/  

Version: 0.1.0 (2025-11-12)
========================================

> Initializing system ...
 System initialization completed.
> Loading system components from CSV files from /Users/ruthkravis/Documents/STING/examples/small_signal_and_emt/2-bus-src-gfl_e ...
 - 'infinite_sources.csv' ... 
   Added 1 'infinite_sources' 
 - 'gfli_e.csv' ... 
   Added 1 'gfli_e' 
 - 'buses.csv' ... 
   Added 2 'buses' 
 - 'loads.csv' ... 
   Added 2 'loads' 
 - 'lines.csv' ... 
   Added 1 'lines' 
 - 'timepoints.csv' ... 
   Added 1 'timepoints' 
> Post system initialization completed in 0.00 seconds.
> Completed in: 0.00 seconds. 


>> Starting AC power flow...

Model settings: ModelSettings(generator_type_costs='linear', power_flow_formulation='polar', load_shedding=True, write_model_file=False)
Solver settings: SolverSettings(solver_name='ipopt', tee=True, solver_options=None)
> Initializing construction of the optimization model for capacity expansion ... 
 - Decision variables of active power and reactive power for generators
   Size: 4 variables
 - Constraints for generator active power dispatch limits
   Size: 2 constraints
 - Constraints for generator reactive power dispatch limits
   Size: 2 constraints
 - Expressions for dispatch of active power at any bus
   Size: 2 expressions
 - Expressions for dispatch of reactive power at any bus
   Size: 2 expressions
 - Expressions for generation cost per timepoint
   Size: 1 expressions
> Initializing construction of ac power flow variables, constraints, and costs ... 
 - Processing load data for power flow model
 - Decision variables of bus voltage magnitudes and angles
   Size: 4 variables
 - Decision variables of active load shedding
   Size: 2 variables
 - Decision variables of reactive load shedding
   Size: 2 variables
 - Power flow per bus expressions
 - Active power balance at each bus
   Size: 2 constraints
 - Reactive power balance at each bus
   Size: 2 constraints
 - Load shedding cost expressions
   Size: 1 expressions
 - Load shedding cost expressions
   Size: 1 expressions
> Completed in 0.01 seconds. 

> Completed in 0.00 seconds. 

> Completed in 0.01 seconds. 

> Solving ac power flow model...
Ipopt 3.14.19: 

******************************************************************************
This program contains Ipopt, a library for large-scale nonlinear optimization.
 Ipopt is released as open source code under the Eclipse Public License (EPL).
         For more information visit https://github.com/coin-or/Ipopt
******************************************************************************

This is Ipopt version 3.14.19, running with linear solver MUMPS 5.6.2.

Number of nonzeros in equality constraint Jacobian...:       22
Number of nonzeros in inequality constraint Jacobian.:        2
Number of nonzeros in Lagrangian Hessian.............:        6

Total number of variables............................:       11
                     variables with only lower bounds:        4
                variables with lower and upper bounds:        3
                     variables with only upper bounds:        0
Total number of equality constraints.................:        6
Total number of inequality constraints...............:        2
        inequality constraints with only lower bounds:        0
   inequality constraints with lower and upper bounds:        2
        inequality constraints with only upper bounds:        0

iter    objective    inf_pr   inf_du lg(mu)  ||d||  lg(rg) alpha_du alpha_pr  ls
   0  3.9999960e+01 1.20e+02 4.43e+01  -1.0 0.00e+00    -  0.00e+00 0.00e+00   0
   1  3.2737862e+01 1.20e+02 1.26e+02  -1.0 1.23e+02    -  2.68e-01 2.70e-03h  1
   2  3.2347182e+01 1.19e+02 1.29e+02  -1.0 1.29e+02    -  2.98e-03 2.84e-03h  1
   3  1.6412975e+01 8.16e+01 1.59e+03  -1.0 1.29e+02    -  7.94e-02 3.17e-01f  1
   4  1.9507125e+00 7.65e+01 1.65e+03  -1.0 9.07e+01    -  1.08e-03 6.22e-02f  1
   5  1.5311048e+01 4.57e+01 1.80e+03  -1.0 8.64e+01    -  6.40e-02 4.02e-01h  1
   6  1.4850226e+01 4.56e+01 1.79e+03  -1.0 5.61e+01    -  1.93e-01 2.83e-03h  1
   7  3.2966365e+00 2.71e+01 1.37e+03  -1.0 5.07e+01    -  7.56e-01 4.05e-01f  1
   8  3.3650854e+00 2.60e+01 1.99e+03  -1.0 5.01e+01    -  9.07e-01 4.24e-02h  1
   9  3.3710062e+00 2.60e+01 1.89e+04  -1.0 4.64e+01    -  1.25e-01 5.33e-04h  1
iter    objective    inf_pr   inf_du lg(mu)  ||d||  lg(rg) alpha_du alpha_pr  ls
  10  1.4280222e+02 2.56e+01 1.98e+03  -1.0 2.91e+01    -  1.20e-04 1.47e-02h  1
  11  1.8509952e+04 2.01e+00 3.12e+03  -1.0 2.83e+01    -  2.46e-02 1.00e+00h  1
  12  2.1536555e+04 5.63e-03 6.27e+00  -1.0 3.03e+00    -  1.00e+00 1.00e+00h  1
  13  2.1541849e+04 2.74e-07 2.54e-04  -1.7 1.59e-02    -  1.00e+00 1.00e+00h  1
  14  2.1540850e+04 6.81e-09 3.67e-06  -5.7 1.79e-03    -  1.00e+00 1.00e+00f  1
  15  2.1540850e+04 2.84e-14 8.50e-12  -8.6 3.09e-07    -  1.00e+00 1.00e+00h  1

Number of Iterations....: 15

                                   (scaled)                 (unscaled)
Objective...............:   2.1540850279177480e+03    2.1540850279177477e+04
Dual infeasibility......:   8.4968855376969712e-12    8.4968855376969712e-11
Constraint violation....:   1.5752397847189015e-14    2.8421709430404007e-14
Variable bound violation:   1.0499898950300235e-08    1.0499898950300235e-08
Complementarity.........:   2.5059958595510932e-09    2.5059958595510931e-08
Overall NLP error.......:   9.8114348023672384e-11    2.5059958595510931e-08


Number of objective function evaluations             = 16
Number of objective gradient evaluations             = 16
Number of equality constraint evaluations            = 16
Number of inequality constraint evaluations          = 16
Number of equality constraint Jacobian evaluations   = 16
Number of inequality constraint Jacobian evaluations = 16
Number of Lagrangian Hessian evaluations             = 15
Total seconds in IPOPT                               = 0.016

EXIT: Optimal Solution Found.

Could not load duals, i.e., shadow prices, from solver.
> Time spent by solver: 0.13 seconds.
> Solver finished with status: ok, termination condition: optimal.
> Objective value: 21540.85027917748. 

> Initializing export all results to CSV files ... 
- Directory: /Users/ruthkravis/Documents/STING/examples/small_signal_and_emt/2-bus-src-gfl_e/outputs/ac_power_flow
> Initializing export generator dispatch results to CSV files ... 
> Completed in 0.00 seconds. 

> Initializing export power flow results to CSV files ... 
> Completed in 0.01 seconds. 

> Completed in 0.01 seconds. 

> Add branches and shunts from dissecting lines:
  - Lines with no series compensation
... ok.

2026-04-22 16:12:38
   ______   __ 
  / __/ /__/ /_  _____ _
 _\ \/ __/ _// \/ / _ `/
/___/__///  /_/\_/\_, /
       /         /___/  

Version: 0.1.0 (2025-11-12)
========================================

> Initializing system ...
 System initialization completed.
> Loading system components from CSV files from /Users/ruthkravis/Documents/STING/examples/small_signal_and_emt/2-bus-src-gfl_e ...
 - 'infinite_sources.csv' ... 
   Added 1 'infinite_sources' 
 - 'gfli_e.csv' ... 
   Added 1 'gfli_e' 
 - 'buses.csv' ... 
   Added 2 'buses' 
 - 'loads.csv' ... 
   Added 2 'loads' 
 - 'lines.csv' ... 
   Added 1 'lines' 
 - 'timepoints.csv' ... 
   Added 1 'timepoints' 
> Post system initialization completed in 0.00 seconds.
> Completed in: 0.00 seconds. 


>> Starting AC power flow...

Model settings: ModelSettings(generator_type_costs='linear', power_flow_formulation='polar', load_shedding=True, write_model_file=False)
Solver settings: SolverSettings(solver_name='ipopt', tee=True, solver_options=None)
> Initializing construction of the optimization model for capacity expansion ... 
 - Decision variables of active power and reactive power for generators
   Size: 4 variables
 - Constraints for generator active power dispatch limits
   Size: 2 constraints
 - Constraints for generator reactive power dispatch limits
   Size: 2 constraints
 - Expressions for dispatch of active power at any bus
   Size: 2 expressions
 - Expressions for dispatch of reactive power at any bus
   Size: 2 expressions
 - Expressions for generation cost per timepoint
   Size: 1 expressions
> Initializing construction of ac power flow variables, constraints, and costs ... 
 - Processing load data for power flow model
 - Decision variables of bus voltage magnitudes and angles
   Size: 4 variables
 - Decision variables of active load shedding
   Size: 2 variables
 - Decision variables of reactive load shedding
   Size: 2 variables
 - Power flow per bus expressions
 - Active power balance at each bus
   Size: 2 constraints
 - Reactive power balance at each bus
   Size: 2 constraints
 - Load shedding cost expressions
   Size: 1 expressions
 - Load shedding cost expressions
   Size: 1 expressions
> Completed in 0.01 seconds. 

> Completed in 0.00 seconds. 

> Completed in 0.01 seconds. 

> Solving ac power flow model...
Ipopt 3.14.19: 

******************************************************************************
This program contains Ipopt, a library for large-scale nonlinear optimization.
 Ipopt is released as open source code under the Eclipse Public License (EPL).
         For more information visit https://github.com/coin-or/Ipopt
******************************************************************************

This is Ipopt version 3.14.19, running with linear solver MUMPS 5.6.2.

Number of nonzeros in equality constraint Jacobian...:       22
Number of nonzeros in inequality constraint Jacobian.:        2
Number of nonzeros in Lagrangian Hessian.............:        6

Total number of variables............................:       11
                     variables with only lower bounds:        4
                variables with lower and upper bounds:        3
                     variables with only upper bounds:        0
Total number of equality constraints.................:        6
Total number of inequality constraints...............:        2
        inequality constraints with only lower bounds:        0
   inequality constraints with lower and upper bounds:        2
        inequality constraints with only upper bounds:        0

iter    objective    inf_pr   inf_du lg(mu)  ||d||  lg(rg) alpha_du alpha_pr  ls
   0  3.9999960e+01 1.20e+02 4.43e+01  -1.0 0.00e+00    -  0.00e+00 0.00e+00   0
   1  3.2737862e+01 1.20e+02 1.26e+02  -1.0 1.23e+02    -  2.68e-01 2.70e-03h  1
   2  3.2347182e+01 1.19e+02 1.29e+02  -1.0 1.29e+02    -  2.98e-03 2.84e-03h  1
   3  1.6412975e+01 8.16e+01 1.59e+03  -1.0 1.29e+02    -  7.94e-02 3.17e-01f  1
   4  1.9507125e+00 7.65e+01 1.65e+03  -1.0 9.07e+01    -  1.08e-03 6.22e-02f  1
   5  1.5311048e+01 4.57e+01 1.80e+03  -1.0 8.64e+01    -  6.40e-02 4.02e-01h  1
   6  1.4850226e+01 4.56e+01 1.79e+03  -1.0 5.61e+01    -  1.93e-01 2.83e-03h  1
   7  3.2966365e+00 2.71e+01 1.37e+03  -1.0 5.07e+01    -  7.56e-01 4.05e-01f  1
   8  3.3650854e+00 2.60e+01 1.99e+03  -1.0 5.01e+01    -  9.07e-01 4.24e-02h  1
   9  3.3710062e+00 2.60e+01 1.89e+04  -1.0 4.64e+01    -  1.25e-01 5.33e-04h  1
iter    objective    inf_pr   inf_du lg(mu)  ||d||  lg(rg) alpha_du alpha_pr  ls
  10  1.4280222e+02 2.56e+01 1.98e+03  -1.0 2.91e+01    -  1.20e-04 1.47e-02h  1
  11  1.8509952e+04 2.01e+00 3.12e+03  -1.0 2.83e+01    -  2.46e-02 1.00e+00h  1
  12  2.1536555e+04 5.63e-03 6.27e+00  -1.0 3.03e+00    -  1.00e+00 1.00e+00h  1
  13  2.1541849e+04 2.74e-07 2.54e-04  -1.7 1.59e-02    -  1.00e+00 1.00e+00h  1
  14  2.1540850e+04 6.81e-09 3.67e-06  -5.7 1.79e-03    -  1.00e+00 1.00e+00f  1
  15  2.1540850e+04 2.84e-14 8.50e-12  -8.6 3.09e-07    -  1.00e+00 1.00e+00h  1

Number of Iterations....: 15

                                   (scaled)                 (unscaled)
Objective...............:   2.1540850279177480e+03    2.1540850279177477e+04
Dual infeasibility......:   8.4968855376969712e-12    8.4968855376969712e-11
Constraint violation....:   1.5752397847189015e-14    2.8421709430404007e-14
Variable bound violation:   1.0499898950300235e-08    1.0499898950300235e-08
Complementarity.........:   2.5059958595510932e-09    2.5059958595510931e-08
Overall NLP error.......:   9.8114348023672384e-11    2.5059958595510931e-08


Number of objective function evaluations             = 16
Number of objective gradient evaluations             = 16
Number of equality constraint evaluations            = 16
Number of inequality constraint evaluations          = 16
Number of equality constraint Jacobian evaluations   = 16
Number of inequality constraint Jacobian evaluations = 16
Number of Lagrangian Hessian evaluations             = 15
Total seconds in IPOPT                               = 0.023

EXIT: Optimal Solution Found.

Could not load duals, i.e., shadow prices, from solver.
> Time spent by solver: 0.13 seconds.
> Solver finished with status: ok, termination condition: optimal.
> Objective value: 21540.85027917748. 

> Initializing export all results to CSV files ... 
- Directory: /Users/ruthkravis/Documents/STING/examples/small_signal_and_emt/2-bus-src-gfl_e/outputs/ac_power_flow
> Initializing export generator dispatch results to CSV files ... 
> Completed in 0.00 seconds. 

> Initializing export power flow results to CSV files ... 
> Completed in 0.01 seconds. 

> Completed in 0.01 seconds. 

> Add branches and shunts from dissecting lines:
  - Lines with no series compensation
... ok.

2026-04-22 16:13:08
   ______   __ 
  / __/ /__/ /_  _____ _
 _\ \/ __/ _// \/ / _ `/
/___/__///  /_/\_/\_, /
       /         /___/  

Version: 0.1.0 (2025-11-12)
========================================

> Initializing system ...
 System initialization completed.
> Loading system components from CSV files from /Users/ruthkravis/Documents/STING/examples/small_signal_and_emt/2-bus-src-gfl_e ...
 - 'infinite_sources.csv' ... 
   Added 1 'infinite_sources' 
 - 'gfli_e.csv' ... 
   Added 1 'gfli_e' 
 - 'buses.csv' ... 
   Added 2 'buses' 
 - 'loads.csv' ... 
   Added 2 'loads' 
 - 'lines.csv' ... 
   Added 1 'lines' 
 - 'timepoints.csv' ... 
   Added 1 'timepoints' 
> Post system initialization completed in 0.00 seconds.
> Completed in: 0.00 seconds. 


>> Starting AC power flow...

Model settings: ModelSettings(generator_type_costs='linear', power_flow_formulation='polar', load_shedding=True, write_model_file=False)
Solver settings: SolverSettings(solver_name='ipopt', tee=True, solver_options=None)
> Initializing construction of the optimization model for capacity expansion ... 
 - Decision variables of active power and reactive power for generators
   Size: 4 variables
 - Constraints for generator active power dispatch limits
   Size: 2 constraints
 - Constraints for generator reactive power dispatch limits
   Size: 2 constraints
 - Expressions for dispatch of active power at any bus
   Size: 2 expressions
 - Expressions for dispatch of reactive power at any bus
   Size: 2 expressions
 - Expressions for generation cost per timepoint
   Size: 1 expressions
> Initializing construction of ac power flow variables, constraints, and costs ... 
 - Processing load data for power flow model
 - Decision variables of bus voltage magnitudes and angles
   Size: 4 variables
 - Decision variables of active load shedding
   Size: 2 variables
 - Decision variables of reactive load shedding
   Size: 2 variables
 - Power flow per bus expressions
 - Active power balance at each bus
   Size: 2 constraints
 - Reactive power balance at each bus
   Size: 2 constraints
 - Load shedding cost expressions
   Size: 1 expressions
 - Load shedding cost expressions
   Size: 1 expressions
> Completed in 0.00 seconds. 

> Completed in 0.00 seconds. 

> Completed in 0.01 seconds. 

> Solving ac power flow model...
Ipopt 3.14.19: 

******************************************************************************
This program contains Ipopt, a library for large-scale nonlinear optimization.
 Ipopt is released as open source code under the Eclipse Public License (EPL).
         For more information visit https://github.com/coin-or/Ipopt
******************************************************************************

This is Ipopt version 3.14.19, running with linear solver MUMPS 5.6.2.

Number of nonzeros in equality constraint Jacobian...:       22
Number of nonzeros in inequality constraint Jacobian.:        2
Number of nonzeros in Lagrangian Hessian.............:        6

Total number of variables............................:       11
                     variables with only lower bounds:        4
                variables with lower and upper bounds:        3
                     variables with only upper bounds:        0
Total number of equality constraints.................:        6
Total number of inequality constraints...............:        2
        inequality constraints with only lower bounds:        0
   inequality constraints with lower and upper bounds:        2
        inequality constraints with only upper bounds:        0

iter    objective    inf_pr   inf_du lg(mu)  ||d||  lg(rg) alpha_du alpha_pr  ls
   0  3.9999960e+01 1.20e+02 4.43e+01  -1.0 0.00e+00    -  0.00e+00 0.00e+00   0
   1  3.2737862e+01 1.20e+02 1.26e+02  -1.0 1.23e+02    -  2.68e-01 2.70e-03h  1
   2  3.2347182e+01 1.19e+02 1.29e+02  -1.0 1.29e+02    -  2.98e-03 2.84e-03h  1
   3  1.6412975e+01 8.16e+01 1.59e+03  -1.0 1.29e+02    -  7.94e-02 3.17e-01f  1
   4  1.9507125e+00 7.65e+01 1.65e+03  -1.0 9.07e+01    -  1.08e-03 6.22e-02f  1
   5  1.5311048e+01 4.57e+01 1.80e+03  -1.0 8.64e+01    -  6.40e-02 4.02e-01h  1
   6  1.4850226e+01 4.56e+01 1.79e+03  -1.0 5.61e+01    -  1.93e-01 2.83e-03h  1
   7  3.2966365e+00 2.71e+01 1.37e+03  -1.0 5.07e+01    -  7.56e-01 4.05e-01f  1
   8  3.3650854e+00 2.60e+01 1.99e+03  -1.0 5.01e+01    -  9.07e-01 4.24e-02h  1
   9  3.3710062e+00 2.60e+01 1.89e+04  -1.0 4.64e+01    -  1.25e-01 5.33e-04h  1
iter    objective    inf_pr   inf_du lg(mu)  ||d||  lg(rg) alpha_du alpha_pr  ls
  10  1.4280222e+02 2.56e+01 1.98e+03  -1.0 2.91e+01    -  1.20e-04 1.47e-02h  1
  11  1.8509952e+04 2.01e+00 3.12e+03  -1.0 2.83e+01    -  2.46e-02 1.00e+00h  1
  12  2.1536555e+04 5.63e-03 6.27e+00  -1.0 3.03e+00    -  1.00e+00 1.00e+00h  1
  13  2.1541849e+04 2.74e-07 2.54e-04  -1.7 1.59e-02    -  1.00e+00 1.00e+00h  1
  14  2.1540850e+04 6.81e-09 3.67e-06  -5.7 1.79e-03    -  1.00e+00 1.00e+00f  1
  15  2.1540850e+04 2.84e-14 8.50e-12  -8.6 3.09e-07    -  1.00e+00 1.00e+00h  1

Number of Iterations....: 15

                                   (scaled)                 (unscaled)
Objective...............:   2.1540850279177480e+03    2.1540850279177477e+04
Dual infeasibility......:   8.4968855376969712e-12    8.4968855376969712e-11
Constraint violation....:   1.5752397847189015e-14    2.8421709430404007e-14
Variable bound violation:   1.0499898950300235e-08    1.0499898950300235e-08
Complementarity.........:   2.5059958595510932e-09    2.5059958595510931e-08
Overall NLP error.......:   9.8114348023672384e-11    2.5059958595510931e-08


Number of objective function evaluations             = 16
Number of objective gradient evaluations             = 16
Number of equality constraint evaluations            = 16
Number of inequality constraint evaluations          = 16
Number of equality constraint Jacobian evaluations   = 16
Number of inequality constraint Jacobian evaluations = 16
Number of Lagrangian Hessian evaluations             = 15
Total seconds in IPOPT                               = 0.026

EXIT: Optimal Solution Found.

Could not load duals, i.e., shadow prices, from solver.
> Time spent by solver: 0.13 seconds.
> Solver finished with status: ok, termination condition: optimal.
> Objective value: 21540.85027917748. 

> Initializing export all results to CSV files ... 
- Directory: /Users/ruthkravis/Documents/STING/examples/small_signal_and_emt/2-bus-src-gfl_e/outputs/ac_power_flow
> Initializing export generator dispatch results to CSV files ... 
> Completed in 0.00 seconds. 

> Initializing export power flow results to CSV files ... 
> Completed in 0.01 seconds. 

> Completed in 0.01 seconds. 

> Add branches and shunts from dissecting lines:
  - Lines with no series compensation
... ok.

2026-04-22 16:13:46
   ______   __ 
  / __/ /__/ /_  _____ _
 _\ \/ __/ _// \/ / _ `/
/___/__///  /_/\_/\_, /
       /         /___/  

Version: 0.1.0 (2025-11-12)
========================================

> Initializing system ...
 System initialization completed.
> Loading system components from CSV files from /Users/ruthkravis/Documents/STING/examples/small_signal_and_emt/2-bus-src-gfl_e ...
 - 'infinite_sources.csv' ... 
   Added 1 'infinite_sources' 
 - 'gfli_e.csv' ... 
   Added 1 'gfli_e' 
 - 'buses.csv' ... 
   Added 2 'buses' 
 - 'loads.csv' ... 
   Added 2 'loads' 
 - 'lines.csv' ... 
   Added 1 'lines' 
 - 'timepoints.csv' ... 
   Added 1 'timepoints' 
> Post system initialization completed in 0.00 seconds.
> Completed in: 0.00 seconds. 


>> Starting AC power flow...

Model settings: ModelSettings(generator_type_costs='linear', power_flow_formulation='polar', load_shedding=True, write_model_file=False)
Solver settings: SolverSettings(solver_name='ipopt', tee=True, solver_options=None)
> Initializing construction of the optimization model for capacity expansion ... 
 - Decision variables of active power and reactive power for generators
   Size: 4 variables
 - Constraints for generator active power dispatch limits
   Size: 2 constraints
 - Constraints for generator reactive power dispatch limits
   Size: 2 constraints
 - Expressions for dispatch of active power at any bus
   Size: 2 expressions
 - Expressions for dispatch of reactive power at any bus
   Size: 2 expressions
 - Expressions for generation cost per timepoint
   Size: 1 expressions
> Initializing construction of ac power flow variables, constraints, and costs ... 
 - Processing load data for power flow model
 - Decision variables of bus voltage magnitudes and angles
   Size: 4 variables
 - Decision variables of active load shedding
   Size: 2 variables
 - Decision variables of reactive load shedding
   Size: 2 variables
 - Power flow per bus expressions
 - Active power balance at each bus
   Size: 2 constraints
 - Reactive power balance at each bus
   Size: 2 constraints
 - Load shedding cost expressions
   Size: 1 expressions
 - Load shedding cost expressions
   Size: 1 expressions
> Completed in 0.00 seconds. 

> Completed in 0.00 seconds. 

> Completed in 0.01 seconds. 

> Solving ac power flow model...
Ipopt 3.14.19: 

******************************************************************************
This program contains Ipopt, a library for large-scale nonlinear optimization.
 Ipopt is released as open source code under the Eclipse Public License (EPL).
         For more information visit https://github.com/coin-or/Ipopt
******************************************************************************

This is Ipopt version 3.14.19, running with linear solver MUMPS 5.6.2.

Number of nonzeros in equality constraint Jacobian...:       22
Number of nonzeros in inequality constraint Jacobian.:        2
Number of nonzeros in Lagrangian Hessian.............:        6

Total number of variables............................:       11
                     variables with only lower bounds:        4
                variables with lower and upper bounds:        3
                     variables with only upper bounds:        0
Total number of equality constraints.................:        6
Total number of inequality constraints...............:        2
        inequality constraints with only lower bounds:        0
   inequality constraints with lower and upper bounds:        2
        inequality constraints with only upper bounds:        0

iter    objective    inf_pr   inf_du lg(mu)  ||d||  lg(rg) alpha_du alpha_pr  ls
   0  3.9999960e+01 1.20e+02 4.43e+01  -1.0 0.00e+00    -  0.00e+00 0.00e+00   0
   1  3.2737862e+01 1.20e+02 1.26e+02  -1.0 1.23e+02    -  2.68e-01 2.70e-03h  1
   2  3.2347182e+01 1.19e+02 1.29e+02  -1.0 1.29e+02    -  2.98e-03 2.84e-03h  1
   3  1.6412975e+01 8.16e+01 1.59e+03  -1.0 1.29e+02    -  7.94e-02 3.17e-01f  1
   4  1.9507125e+00 7.65e+01 1.65e+03  -1.0 9.07e+01    -  1.08e-03 6.22e-02f  1
   5  1.5311048e+01 4.57e+01 1.80e+03  -1.0 8.64e+01    -  6.40e-02 4.02e-01h  1
   6  1.4850226e+01 4.56e+01 1.79e+03  -1.0 5.61e+01    -  1.93e-01 2.83e-03h  1
   7  3.2966365e+00 2.71e+01 1.37e+03  -1.0 5.07e+01    -  7.56e-01 4.05e-01f  1
   8  3.3650854e+00 2.60e+01 1.99e+03  -1.0 5.01e+01    -  9.07e-01 4.24e-02h  1
   9  3.3710062e+00 2.60e+01 1.89e+04  -1.0 4.64e+01    -  1.25e-01 5.33e-04h  1
iter    objective    inf_pr   inf_du lg(mu)  ||d||  lg(rg) alpha_du alpha_pr  ls
  10  1.4280222e+02 2.56e+01 1.98e+03  -1.0 2.91e+01    -  1.20e-04 1.47e-02h  1
  11  1.8509952e+04 2.01e+00 3.12e+03  -1.0 2.83e+01    -  2.46e-02 1.00e+00h  1
  12  2.1536555e+04 5.63e-03 6.27e+00  -1.0 3.03e+00    -  1.00e+00 1.00e+00h  1
  13  2.1541849e+04 2.74e-07 2.54e-04  -1.7 1.59e-02    -  1.00e+00 1.00e+00h  1
  14  2.1540850e+04 6.81e-09 3.67e-06  -5.7 1.79e-03    -  1.00e+00 1.00e+00f  1
  15  2.1540850e+04 2.84e-14 8.50e-12  -8.6 3.09e-07    -  1.00e+00 1.00e+00h  1

Number of Iterations....: 15

                                   (scaled)                 (unscaled)
Objective...............:   2.1540850279177480e+03    2.1540850279177477e+04
Dual infeasibility......:   8.4968855376969712e-12    8.4968855376969712e-11
Constraint violation....:   1.5752397847189015e-14    2.8421709430404007e-14
Variable bound violation:   1.0499898950300235e-08    1.0499898950300235e-08
Complementarity.........:   2.5059958595510932e-09    2.5059958595510931e-08
Overall NLP error.......:   9.8114348023672384e-11    2.5059958595510931e-08


Number of objective function evaluations             = 16
Number of objective gradient evaluations             = 16
Number of equality constraint evaluations            = 16
Number of inequality constraint evaluations          = 16
Number of equality constraint Jacobian evaluations   = 16
Number of inequality constraint Jacobian evaluations = 16
Number of Lagrangian Hessian evaluations             = 15
Total seconds in IPOPT                               = 0.012

EXIT: Optimal Solution Found.

Could not load duals, i.e., shadow prices, from solver.
> Time spent by solver: 0.08 seconds.
> Solver finished with status: ok, termination condition: optimal.
> Objective value: 21540.85027917748. 

> Initializing export all results to CSV files ... 
- Directory: /Users/ruthkravis/Documents/STING/examples/small_signal_and_emt/2-bus-src-gfl_e/outputs/ac_power_flow
> Initializing export generator dispatch results to CSV files ... 
> Completed in 0.00 seconds. 

> Initializing export power flow results to CSV files ... 
> Completed in 0.01 seconds. 

> Completed in 0.01 seconds. 

> Add branches and shunts from dissecting lines:
  - Lines with no series compensation
... ok.

2026-04-22 16:15:15
   ______   __ 
  / __/ /__/ /_  _____ _
 _\ \/ __/ _// \/ / _ `/
/___/__///  /_/\_/\_, /
       /         /___/  

Version: 0.1.0 (2025-11-12)
========================================

> Initializing system ...
 System initialization completed.
> Loading system components from CSV files from /Users/ruthkravis/Documents/STING/examples/small_signal_and_emt/2-bus-src-gfl_e ...
 - 'infinite_sources.csv' ... 
   Added 1 'infinite_sources' 
 - 'gfli_e.csv' ... 
   Added 1 'gfli_e' 
 - 'buses.csv' ... 
   Added 2 'buses' 
 - 'loads.csv' ... 
   Added 2 'loads' 
 - 'lines.csv' ... 
   Added 1 'lines' 
 - 'timepoints.csv' ... 
   Added 1 'timepoints' 
> Post system initialization completed in 0.00 seconds.
> Completed in: 0.00 seconds. 


>> Starting AC power flow...

Model settings: ModelSettings(generator_type_costs='linear', power_flow_formulation='polar', load_shedding=True, write_model_file=False)
Solver settings: SolverSettings(solver_name='ipopt', tee=True, solver_options=None)
> Initializing construction of the optimization model for capacity expansion ... 
 - Decision variables of active power and reactive power for generators
   Size: 4 variables
 - Constraints for generator active power dispatch limits
   Size: 2 constraints
 - Constraints for generator reactive power dispatch limits
   Size: 2 constraints
 - Expressions for dispatch of active power at any bus
   Size: 2 expressions
 - Expressions for dispatch of reactive power at any bus
   Size: 2 expressions
 - Expressions for generation cost per timepoint
   Size: 1 expressions
> Initializing construction of ac power flow variables, constraints, and costs ... 
 - Processing load data for power flow model
 - Decision variables of bus voltage magnitudes and angles
   Size: 4 variables
 - Decision variables of active load shedding
   Size: 2 variables
 - Decision variables of reactive load shedding
   Size: 2 variables
 - Power flow per bus expressions
 - Active power balance at each bus
   Size: 2 constraints
 - Reactive power balance at each bus
   Size: 2 constraints
 - Load shedding cost expressions
   Size: 1 expressions
 - Load shedding cost expressions
   Size: 1 expressions
> Completed in 0.03 seconds. 

> Completed in 0.00 seconds. 

> Completed in 0.03 seconds. 

> Solving ac power flow model...
Ipopt 3.14.19: 

******************************************************************************
This program contains Ipopt, a library for large-scale nonlinear optimization.
 Ipopt is released as open source code under the Eclipse Public License (EPL).
         For more information visit https://github.com/coin-or/Ipopt
******************************************************************************

This is Ipopt version 3.14.19, running with linear solver MUMPS 5.6.2.

Number of nonzeros in equality constraint Jacobian...:       22
Number of nonzeros in inequality constraint Jacobian.:        2
Number of nonzeros in Lagrangian Hessian.............:        6

Total number of variables............................:       11
                     variables with only lower bounds:        4
                variables with lower and upper bounds:        3
                     variables with only upper bounds:        0
Total number of equality constraints.................:        6
Total number of inequality constraints...............:        2
        inequality constraints with only lower bounds:        0
   inequality constraints with lower and upper bounds:        2
        inequality constraints with only upper bounds:        0

iter    objective    inf_pr   inf_du lg(mu)  ||d||  lg(rg) alpha_du alpha_pr  ls
   0  3.9999960e+01 1.20e+02 4.43e+01  -1.0 0.00e+00    -  0.00e+00 0.00e+00   0
   1  3.2737862e+01 1.20e+02 1.26e+02  -1.0 1.23e+02    -  2.68e-01 2.70e-03h  1
   2  3.2347182e+01 1.19e+02 1.29e+02  -1.0 1.29e+02    -  2.98e-03 2.84e-03h  1
   3  1.6412975e+01 8.16e+01 1.59e+03  -1.0 1.29e+02    -  7.94e-02 3.17e-01f  1
   4  1.9507125e+00 7.65e+01 1.65e+03  -1.0 9.07e+01    -  1.08e-03 6.22e-02f  1
   5  1.5311048e+01 4.57e+01 1.80e+03  -1.0 8.64e+01    -  6.40e-02 4.02e-01h  1
   6  1.4850226e+01 4.56e+01 1.79e+03  -1.0 5.61e+01    -  1.93e-01 2.83e-03h  1
   7  3.2966365e+00 2.71e+01 1.37e+03  -1.0 5.07e+01    -  7.56e-01 4.05e-01f  1
   8  3.3650854e+00 2.60e+01 1.99e+03  -1.0 5.01e+01    -  9.07e-01 4.24e-02h  1
   9  3.3710062e+00 2.60e+01 1.89e+04  -1.0 4.64e+01    -  1.25e-01 5.33e-04h  1
iter    objective    inf_pr   inf_du lg(mu)  ||d||  lg(rg) alpha_du alpha_pr  ls
  10  1.4280222e+02 2.56e+01 1.98e+03  -1.0 2.91e+01    -  1.20e-04 1.47e-02h  1
  11  1.8509952e+04 2.01e+00 3.12e+03  -1.0 2.83e+01    -  2.46e-02 1.00e+00h  1
  12  2.1536555e+04 5.63e-03 6.27e+00  -1.0 3.03e+00    -  1.00e+00 1.00e+00h  1
  13  2.1541849e+04 2.74e-07 2.54e-04  -1.7 1.59e-02    -  1.00e+00 1.00e+00h  1
  14  2.1540850e+04 6.81e-09 3.67e-06  -5.7 1.79e-03    -  1.00e+00 1.00e+00f  1
  15  2.1540850e+04 2.84e-14 8.50e-12  -8.6 3.09e-07    -  1.00e+00 1.00e+00h  1

Number of Iterations....: 15

                                   (scaled)                 (unscaled)
Objective...............:   2.1540850279177480e+03    2.1540850279177477e+04
Dual infeasibility......:   8.4968855376969712e-12    8.4968855376969712e-11
Constraint violation....:   1.5752397847189015e-14    2.8421709430404007e-14
Variable bound violation:   1.0499898950300235e-08    1.0499898950300235e-08
Complementarity.........:   2.5059958595510932e-09    2.5059958595510931e-08
Overall NLP error.......:   9.8114348023672384e-11    2.5059958595510931e-08


Number of objective function evaluations             = 16
Number of objective gradient evaluations             = 16
...